data_image0
_chemical_formula_structural       O3SrCoO3BaCoO3SrFeO3SrCoO3BaCoO3SrCoO3LaFeO3LaCoO3LaCoO3SrCoO3BaCoO3SrCoO3SrFeO3SrCoO3SrCoO3SrCoO3SrFeO3BaCoO3SrCoO3LaCoO3SrCoO3SrCoO3LaCoO3BaCoO3BaCoO3LaFeO3BaCoO3BaCoO3SrFeO3BaCoO3BaCoO3BaCoO3BaCoO3BaCoO3SrFeO3LaCoO3BaCoO3LaCoO3SrCoO3BaCoO3SrFeO3BaFeO3BaCoO3LaCoO3SrFeO3SrCoO3SrCoO3BaFeO3BaCoO3LaCoO3SrCoO3BaCoO3BaCoO3SrCoO3LaCoO3SrCoO3SrCoO3LaCoO3BaFeO3BaCoO3LaCoO3BaFeO3BaCoO3SrCo
_chemical_formula_sum              "O192 Sr26 Co51 Ba25 Fe13 La13"
_cell_length_a       15.68
_cell_length_b       15.68
_cell_length_c       15.68
_cell_angle_alpha    90
_cell_angle_beta     90
_cell_angle_gamma    90

_space_group_name_H-M_alt    "P 1"
_space_group_IT_number       1

loop_
  _space_group_symop_operation_xyz
  'x, y, z'

loop_
  _atom_site_type_symbol
  _atom_site_label
  _atom_site_symmetry_multiplicity
  _atom_site_fract_x
  _atom_site_fract_y
  _atom_site_fract_z
  _atom_site_occupancy
  O   O1        1.0  0.12500  0.00000  0.00000  1.0000
  O   O2        1.0  0.00000  0.12500  0.00000  1.0000
  O   O3        1.0  0.00000  0.00000  0.12500  1.0000
  Sr  Sr1       1.0  0.12500  0.12500  0.12500  1.0000
  Co  Co1       1.0  0.00000  0.00000  0.00000  1.0000
  O   O4        1.0  0.12500  0.00000  0.25000  1.0000
  O   O5        1.0  0.00000  0.12500  0.25000  1.0000
  O   O6        1.0  0.00000  0.00000  0.37500  1.0000
  Ba  Ba1       1.0  0.12500  0.12500  0.37500  1.0000
  Co  Co2       1.0  0.00000  0.00000  0.25000  1.0000
  O   O7        1.0  0.12500  0.00000  0.50000  1.0000
  O   O8        1.0  0.00000  0.12500  0.50000  1.0000
  O   O9        1.0  0.00000  0.00000  0.62500  1.0000
  Sr  Sr2       1.0  0.12500  0.12500  0.62500  1.0000
  Fe  Fe1       1.0  0.00000  0.00000  0.50000  1.0000
  O   O10       1.0  0.12500  0.00000  0.75000  1.0000
  O   O11       1.0  0.00000  0.12500  0.75000  1.0000
  O   O12       1.0  0.00000  0.00000  0.87500  1.0000
  Sr  Sr3       1.0  0.12500  0.12500  0.87500  1.0000
  Co  Co3       1.0  0.00000  0.00000  0.75000  1.0000
  O   O13       1.0  0.12500  0.25000  0.00000  1.0000
  O   O14       1.0  0.00000  0.37500  0.00000  1.0000
  O   O15       1.0  0.00000  0.25000  0.12500  1.0000
  Ba  Ba2       1.0  0.12500  0.37500  0.12500  1.0000
  Co  Co4       1.0  0.00000  0.25000  0.00000  1.0000
  O   O16       1.0  0.12500  0.25000  0.25000  1.0000
  O   O17       1.0  0.00000  0.37500  0.25000  1.0000
  O   O18       1.0  0.00000  0.25000  0.37500  1.0000
  Sr  Sr4       1.0  0.12500  0.37500  0.37500  1.0000
  Co  Co5       1.0  0.00000  0.25000  0.25000  1.0000
  O   O19       1.0  0.12500  0.25000  0.50000  1.0000
  O   O20       1.0  0.00000  0.37500  0.50000  1.0000
  O   O21       1.0  0.00000  0.25000  0.62500  1.0000
  La  La1       1.0  0.12500  0.37500  0.62500  1.0000
  Fe  Fe2       1.0  0.00000  0.25000  0.50000  1.0000
  O   O22       1.0  0.12500  0.25000  0.75000  1.0000
  O   O23       1.0  0.00000  0.37500  0.75000  1.0000
  O   O24       1.0  0.00000  0.25000  0.87500  1.0000
  La  La2       1.0  0.12500  0.37500  0.87500  1.0000
  Co  Co6       1.0  0.00000  0.25000  0.75000  1.0000
  O   O25       1.0  0.12500  0.50000  0.00000  1.0000
  O   O26       1.0  0.00000  0.62500  0.00000  1.0000
  O   O27       1.0  0.00000  0.50000  0.12500  1.0000
  La  La3       1.0  0.12500  0.62500  0.12500  1.0000
  Co  Co7       1.0  0.00000  0.50000  0.00000  1.0000
  O   O28       1.0  0.12500  0.50000  0.25000  1.0000
  O   O29       1.0  0.00000  0.62500  0.25000  1.0000
  O   O30       1.0  0.00000  0.50000  0.37500  1.0000
  Sr  Sr5       1.0  0.12500  0.62500  0.37500  1.0000
  Co  Co8       1.0  0.00000  0.50000  0.25000  1.0000
  O   O31       1.0  0.12500  0.50000  0.50000  1.0000
  O   O32       1.0  0.00000  0.62500  0.50000  1.0000
  O   O33       1.0  0.00000  0.50000  0.62500  1.0000
  Ba  Ba3       1.0  0.12500  0.62500  0.62500  1.0000
  Co  Co9       1.0  0.00000  0.50000  0.50000  1.0000
  O   O34       1.0  0.12500  0.50000  0.75000  1.0000
  O   O35       1.0  0.00000  0.62500  0.75000  1.0000
  O   O36       1.0  0.00000  0.50000  0.87500  1.0000
  Sr  Sr6       1.0  0.12500  0.62500  0.87500  1.0000
  Co  Co10      1.0  0.00000  0.50000  0.75000  1.0000
  O   O37       1.0  0.12500  0.75000  0.00000  1.0000
  O   O38       1.0  0.00000  0.87500  0.00000  1.0000
  O   O39       1.0  0.00000  0.75000  0.12500  1.0000
  Sr  Sr7       1.0  0.12500  0.87500  0.12500  1.0000
  Fe  Fe3       1.0  0.00000  0.75000  0.00000  1.0000
  O   O40       1.0  0.12500  0.75000  0.25000  1.0000
  O   O41       1.0  0.00000  0.87500  0.25000  1.0000
  O   O42       1.0  0.00000  0.75000  0.37500  1.0000
  Sr  Sr8       1.0  0.12500  0.87500  0.37500  1.0000
  Co  Co11      1.0  0.00000  0.75000  0.25000  1.0000
  O   O43       1.0  0.12500  0.75000  0.50000  1.0000
  O   O44       1.0  0.00000  0.87500  0.50000  1.0000
  O   O45       1.0  0.00000  0.75000  0.62500  1.0000
  Sr  Sr9       1.0  0.12500  0.87500  0.62500  1.0000
  Co  Co12      1.0  0.00000  0.75000  0.50000  1.0000
  O   O46       1.0  0.12500  0.75000  0.75000  1.0000
  O   O47       1.0  0.00000  0.87500  0.75000  1.0000
  O   O48       1.0  0.00000  0.75000  0.87500  1.0000
  Sr  Sr10      1.0  0.12500  0.87500  0.87500  1.0000
  Co  Co13      1.0  0.00000  0.75000  0.75000  1.0000
  O   O49       1.0  0.37500  0.00000  0.00000  1.0000
  O   O50       1.0  0.25000  0.12500  0.00000  1.0000
  O   O51       1.0  0.25000  0.00000  0.12500  1.0000
  Sr  Sr11      1.0  0.37500  0.12500  0.12500  1.0000
  Fe  Fe4       1.0  0.25000  0.00000  0.00000  1.0000
  O   O52       1.0  0.37500  0.00000  0.25000  1.0000
  O   O53       1.0  0.25000  0.12500  0.25000  1.0000
  O   O54       1.0  0.25000  0.00000  0.37500  1.0000
  Ba  Ba4       1.0  0.37500  0.12500  0.37500  1.0000
  Co  Co14      1.0  0.25000  0.00000  0.25000  1.0000
  O   O55       1.0  0.37500  0.00000  0.50000  1.0000
  O   O56       1.0  0.25000  0.12500  0.50000  1.0000
  O   O57       1.0  0.25000  0.00000  0.62500  1.0000
  Sr  Sr12      1.0  0.37500  0.12500  0.62500  1.0000
  Co  Co15      1.0  0.25000  0.00000  0.50000  1.0000
  O   O58       1.0  0.37500  0.00000  0.75000  1.0000
  O   O59       1.0  0.25000  0.12500  0.75000  1.0000
  O   O60       1.0  0.25000  0.00000  0.87500  1.0000
  La  La4       1.0  0.37500  0.12500  0.87500  1.0000
  Co  Co16      1.0  0.25000  0.00000  0.75000  1.0000
  O   O61       1.0  0.37500  0.25000  0.00000  1.0000
  O   O62       1.0  0.25000  0.37500  0.00000  1.0000
  O   O63       1.0  0.25000  0.25000  0.12500  1.0000
  Sr  Sr13      1.0  0.37500  0.37500  0.12500  1.0000
  Co  Co17      1.0  0.25000  0.25000  0.00000  1.0000
  O   O64       1.0  0.37500  0.25000  0.25000  1.0000
  O   O65       1.0  0.25000  0.37500  0.25000  1.0000
  O   O66       1.0  0.25000  0.25000  0.37500  1.0000
  Sr  Sr14      1.0  0.37500  0.37500  0.37500  1.0000
  Co  Co18      1.0  0.25000  0.25000  0.25000  1.0000
  O   O67       1.0  0.37500  0.25000  0.50000  1.0000
  O   O68       1.0  0.25000  0.37500  0.50000  1.0000
  O   O69       1.0  0.25000  0.25000  0.62500  1.0000
  La  La5       1.0  0.37500  0.37500  0.62500  1.0000
  Co  Co19      1.0  0.25000  0.25000  0.50000  1.0000
  O   O70       1.0  0.37500  0.25000  0.75000  1.0000
  O   O71       1.0  0.25000  0.37500  0.75000  1.0000
  O   O72       1.0  0.25000  0.25000  0.87500  1.0000
  Ba  Ba5       1.0  0.37500  0.37500  0.87500  1.0000
  Co  Co20      1.0  0.25000  0.25000  0.75000  1.0000
  O   O73       1.0  0.37500  0.50000  0.00000  1.0000
  O   O74       1.0  0.25000  0.62500  0.00000  1.0000
  O   O75       1.0  0.25000  0.50000  0.12500  1.0000
  Ba  Ba6       1.0  0.37500  0.62500  0.12500  1.0000
  Co  Co21      1.0  0.25000  0.50000  0.00000  1.0000
  O   O76       1.0  0.37500  0.50000  0.25000  1.0000
  O   O77       1.0  0.25000  0.62500  0.25000  1.0000
  O   O78       1.0  0.25000  0.50000  0.37500  1.0000
  La  La6       1.0  0.37500  0.62500  0.37500  1.0000
  Fe  Fe5       1.0  0.25000  0.50000  0.25000  1.0000
  O   O79       1.0  0.37500  0.50000  0.50000  1.0000
  O   O80       1.0  0.25000  0.62500  0.50000  1.0000
  O   O81       1.0  0.25000  0.50000  0.62500  1.0000
  Ba  Ba7       1.0  0.37500  0.62500  0.62500  1.0000
  Co  Co22      1.0  0.25000  0.50000  0.50000  1.0000
  O   O82       1.0  0.37500  0.50000  0.75000  1.0000
  O   O83       1.0  0.25000  0.62500  0.75000  1.0000
  O   O84       1.0  0.25000  0.50000  0.87500  1.0000
  Ba  Ba8       1.0  0.37500  0.62500  0.87500  1.0000
  Co  Co23      1.0  0.25000  0.50000  0.75000  1.0000
  O   O85       1.0  0.37500  0.75000  0.00000  1.0000
  O   O86       1.0  0.25000  0.87500  0.00000  1.0000
  O   O87       1.0  0.25000  0.75000  0.12500  1.0000
  Sr  Sr15      1.0  0.37500  0.87500  0.12500  1.0000
  Fe  Fe6       1.0  0.25000  0.75000  0.00000  1.0000
  O   O88       1.0  0.37500  0.75000  0.25000  1.0000
  O   O89       1.0  0.25000  0.87500  0.25000  1.0000
  O   O90       1.0  0.25000  0.75000  0.37500  1.0000
  Ba  Ba9       1.0  0.37500  0.87500  0.37500  1.0000
  Co  Co24      1.0  0.25000  0.75000  0.25000  1.0000
  O   O91       1.0  0.37500  0.75000  0.50000  1.0000
  O   O92       1.0  0.25000  0.87500  0.50000  1.0000
  O   O93       1.0  0.25000  0.75000  0.62500  1.0000
  Ba  Ba10      1.0  0.37500  0.87500  0.62500  1.0000
  Co  Co25      1.0  0.25000  0.75000  0.50000  1.0000
  O   O94       1.0  0.37500  0.75000  0.75000  1.0000
  O   O95       1.0  0.25000  0.87500  0.75000  1.0000
  O   O96       1.0  0.25000  0.75000  0.87500  1.0000
  Ba  Ba11      1.0  0.37500  0.87500  0.87500  1.0000
  Co  Co26      1.0  0.25000  0.75000  0.75000  1.0000
  O   O97       1.0  0.62500  0.00000  0.00000  1.0000
  O   O98       1.0  0.50000  0.12500  0.00000  1.0000
  O   O99       1.0  0.50000  0.00000  0.12500  1.0000
  Ba  Ba12      1.0  0.62500  0.12500  0.12500  1.0000
  Co  Co27      1.0  0.50000  0.00000  0.00000  1.0000
  O   O100      1.0  0.62500  0.00000  0.25000  1.0000
  O   O101      1.0  0.50000  0.12500  0.25000  1.0000
  O   O102      1.0  0.50000  0.00000  0.37500  1.0000
  Ba  Ba13      1.0  0.62500  0.12500  0.37500  1.0000
  Co  Co28      1.0  0.50000  0.00000  0.25000  1.0000
  O   O103      1.0  0.62500  0.00000  0.50000  1.0000
  O   O104      1.0  0.50000  0.12500  0.50000  1.0000
  O   O105      1.0  0.50000  0.00000  0.62500  1.0000
  Sr  Sr16      1.0  0.62500  0.12500  0.62500  1.0000
  Fe  Fe7       1.0  0.50000  0.00000  0.50000  1.0000
  O   O106      1.0  0.62500  0.00000  0.75000  1.0000
  O   O107      1.0  0.50000  0.12500  0.75000  1.0000
  O   O108      1.0  0.50000  0.00000  0.87500  1.0000
  La  La7       1.0  0.62500  0.12500  0.87500  1.0000
  Co  Co29      1.0  0.50000  0.00000  0.75000  1.0000
  O   O109      1.0  0.62500  0.25000  0.00000  1.0000
  O   O110      1.0  0.50000  0.37500  0.00000  1.0000
  O   O111      1.0  0.50000  0.25000  0.12500  1.0000
  Ba  Ba14      1.0  0.62500  0.37500  0.12500  1.0000
  Co  Co30      1.0  0.50000  0.25000  0.00000  1.0000
  O   O112      1.0  0.62500  0.25000  0.25000  1.0000
  O   O113      1.0  0.50000  0.37500  0.25000  1.0000
  O   O114      1.0  0.50000  0.25000  0.37500  1.0000
  La  La8       1.0  0.62500  0.37500  0.37500  1.0000
  Co  Co31      1.0  0.50000  0.25000  0.25000  1.0000
  O   O115      1.0  0.62500  0.25000  0.50000  1.0000
  O   O116      1.0  0.50000  0.37500  0.50000  1.0000
  O   O117      1.0  0.50000  0.25000  0.62500  1.0000
  Sr  Sr17      1.0  0.62500  0.37500  0.62500  1.0000
  Co  Co32      1.0  0.50000  0.25000  0.50000  1.0000
  O   O118      1.0  0.62500  0.25000  0.75000  1.0000
  O   O119      1.0  0.50000  0.37500  0.75000  1.0000
  O   O120      1.0  0.50000  0.25000  0.87500  1.0000
  Ba  Ba15      1.0  0.62500  0.37500  0.87500  1.0000
  Co  Co33      1.0  0.50000  0.25000  0.75000  1.0000
  O   O121      1.0  0.62500  0.50000  0.00000  1.0000
  O   O122      1.0  0.50000  0.62500  0.00000  1.0000
  O   O123      1.0  0.50000  0.50000  0.12500  1.0000
  Sr  Sr18      1.0  0.62500  0.62500  0.12500  1.0000
  Fe  Fe8       1.0  0.50000  0.50000  0.00000  1.0000
  O   O124      1.0  0.62500  0.50000  0.25000  1.0000
  O   O125      1.0  0.50000  0.62500  0.25000  1.0000
  O   O126      1.0  0.50000  0.50000  0.37500  1.0000
  Ba  Ba16      1.0  0.62500  0.62500  0.37500  1.0000
  Fe  Fe9       1.0  0.50000  0.50000  0.25000  1.0000
  O   O127      1.0  0.62500  0.50000  0.50000  1.0000
  O   O128      1.0  0.50000  0.62500  0.50000  1.0000
  O   O129      1.0  0.50000  0.50000  0.62500  1.0000
  Ba  Ba17      1.0  0.62500  0.62500  0.62500  1.0000
  Co  Co34      1.0  0.50000  0.50000  0.50000  1.0000
  O   O130      1.0  0.62500  0.50000  0.75000  1.0000
  O   O131      1.0  0.50000  0.62500  0.75000  1.0000
  O   O132      1.0  0.50000  0.50000  0.87500  1.0000
  La  La9       1.0  0.62500  0.62500  0.87500  1.0000
  Co  Co35      1.0  0.50000  0.50000  0.75000  1.0000
  O   O133      1.0  0.62500  0.75000  0.00000  1.0000
  O   O134      1.0  0.50000  0.87500  0.00000  1.0000
  O   O135      1.0  0.50000  0.75000  0.12500  1.0000
  Sr  Sr19      1.0  0.62500  0.87500  0.12500  1.0000
  Fe  Fe10      1.0  0.50000  0.75000  0.00000  1.0000
  O   O136      1.0  0.62500  0.75000  0.25000  1.0000
  O   O137      1.0  0.50000  0.87500  0.25000  1.0000
  O   O138      1.0  0.50000  0.75000  0.37500  1.0000
  Sr  Sr20      1.0  0.62500  0.87500  0.37500  1.0000
  Co  Co36      1.0  0.50000  0.75000  0.25000  1.0000
  O   O139      1.0  0.62500  0.75000  0.50000  1.0000
  O   O140      1.0  0.50000  0.87500  0.50000  1.0000
  O   O141      1.0  0.50000  0.75000  0.62500  1.0000
  Sr  Sr21      1.0  0.62500  0.87500  0.62500  1.0000
  Co  Co37      1.0  0.50000  0.75000  0.50000  1.0000
  O   O142      1.0  0.62500  0.75000  0.75000  1.0000
  O   O143      1.0  0.50000  0.87500  0.75000  1.0000
  O   O144      1.0  0.50000  0.75000  0.87500  1.0000
  Ba  Ba18      1.0  0.62500  0.87500  0.87500  1.0000
  Fe  Fe11      1.0  0.50000  0.75000  0.75000  1.0000
  O   O145      1.0  0.87500  0.00000  0.00000  1.0000
  O   O146      1.0  0.75000  0.12500  0.00000  1.0000
  O   O147      1.0  0.75000  0.00000  0.12500  1.0000
  Ba  Ba19      1.0  0.87500  0.12500  0.12500  1.0000
  Co  Co38      1.0  0.75000  0.00000  0.00000  1.0000
  O   O148      1.0  0.87500  0.00000  0.25000  1.0000
  O   O149      1.0  0.75000  0.12500  0.25000  1.0000
  O   O150      1.0  0.75000  0.00000  0.37500  1.0000
  La  La10      1.0  0.87500  0.12500  0.37500  1.0000
  Co  Co39      1.0  0.75000  0.00000  0.25000  1.0000
  O   O151      1.0  0.87500  0.00000  0.50000  1.0000
  O   O152      1.0  0.75000  0.12500  0.50000  1.0000
  O   O153      1.0  0.75000  0.00000  0.62500  1.0000
  Sr  Sr22      1.0  0.87500  0.12500  0.62500  1.0000
  Co  Co40      1.0  0.75000  0.00000  0.50000  1.0000
  O   O154      1.0  0.87500  0.00000  0.75000  1.0000
  O   O155      1.0  0.75000  0.12500  0.75000  1.0000
  O   O156      1.0  0.75000  0.00000  0.87500  1.0000
  Ba  Ba20      1.0  0.87500  0.12500  0.87500  1.0000
  Co  Co41      1.0  0.75000  0.00000  0.75000  1.0000
  O   O157      1.0  0.87500  0.25000  0.00000  1.0000
  O   O158      1.0  0.75000  0.37500  0.00000  1.0000
  O   O159      1.0  0.75000  0.25000  0.12500  1.0000
  Ba  Ba21      1.0  0.87500  0.37500  0.12500  1.0000
  Co  Co42      1.0  0.75000  0.25000  0.00000  1.0000
  O   O160      1.0  0.87500  0.25000  0.25000  1.0000
  O   O161      1.0  0.75000  0.37500  0.25000  1.0000
  O   O162      1.0  0.75000  0.25000  0.37500  1.0000
  Sr  Sr23      1.0  0.87500  0.37500  0.37500  1.0000
  Co  Co43      1.0  0.75000  0.25000  0.25000  1.0000
  O   O163      1.0  0.87500  0.25000  0.50000  1.0000
  O   O164      1.0  0.75000  0.37500  0.50000  1.0000
  O   O165      1.0  0.75000  0.25000  0.62500  1.0000
  La  La11      1.0  0.87500  0.37500  0.62500  1.0000
  Co  Co44      1.0  0.75000  0.25000  0.50000  1.0000
  O   O166      1.0  0.87500  0.25000  0.75000  1.0000
  O   O167      1.0  0.75000  0.37500  0.75000  1.0000
  O   O168      1.0  0.75000  0.25000  0.87500  1.0000
  Sr  Sr24      1.0  0.87500  0.37500  0.87500  1.0000
  Co  Co45      1.0  0.75000  0.25000  0.75000  1.0000
  O   O169      1.0  0.87500  0.50000  0.00000  1.0000
  O   O170      1.0  0.75000  0.62500  0.00000  1.0000
  O   O171      1.0  0.75000  0.50000  0.12500  1.0000
  Sr  Sr25      1.0  0.87500  0.62500  0.12500  1.0000
  Co  Co46      1.0  0.75000  0.50000  0.00000  1.0000
  O   O172      1.0  0.87500  0.50000  0.25000  1.0000
  O   O173      1.0  0.75000  0.62500  0.25000  1.0000
  O   O174      1.0  0.75000  0.50000  0.37500  1.0000
  La  La12      1.0  0.87500  0.62500  0.37500  1.0000
  Co  Co47      1.0  0.75000  0.50000  0.25000  1.0000
  O   O175      1.0  0.87500  0.50000  0.50000  1.0000
  O   O176      1.0  0.75000  0.62500  0.50000  1.0000
  O   O177      1.0  0.75000  0.50000  0.62500  1.0000
  Ba  Ba22      1.0  0.87500  0.62500  0.62500  1.0000
  Fe  Fe12      1.0  0.75000  0.50000  0.50000  1.0000
  O   O178      1.0  0.87500  0.50000  0.75000  1.0000
  O   O179      1.0  0.75000  0.62500  0.75000  1.0000
  O   O180      1.0  0.75000  0.50000  0.87500  1.0000
  Ba  Ba23      1.0  0.87500  0.62500  0.87500  1.0000
  Co  Co48      1.0  0.75000  0.50000  0.75000  1.0000
  O   O181      1.0  0.87500  0.75000  0.00000  1.0000
  O   O182      1.0  0.75000  0.87500  0.00000  1.0000
  O   O183      1.0  0.75000  0.75000  0.12500  1.0000
  La  La13      1.0  0.87500  0.87500  0.12500  1.0000
  Co  Co49      1.0  0.75000  0.75000  0.00000  1.0000
  O   O184      1.0  0.87500  0.75000  0.25000  1.0000
  O   O185      1.0  0.75000  0.87500  0.25000  1.0000
  O   O186      1.0  0.75000  0.75000  0.37500  1.0000
  Ba  Ba24      1.0  0.87500  0.87500  0.37500  1.0000
  Fe  Fe13      1.0  0.75000  0.75000  0.25000  1.0000
  O   O187      1.0  0.87500  0.75000  0.50000  1.0000
  O   O188      1.0  0.75000  0.87500  0.50000  1.0000
  O   O189      1.0  0.75000  0.75000  0.62500  1.0000
  Ba  Ba25      1.0  0.87500  0.87500  0.62500  1.0000
  Co  Co50      1.0  0.75000  0.75000  0.50000  1.0000
  O   O190      1.0  0.87500  0.75000  0.75000  1.0000
  O   O191      1.0  0.75000  0.87500  0.75000  1.0000
  O   O192      1.0  0.75000  0.75000  0.87500  1.0000
  Sr  Sr26      1.0  0.87500  0.87500  0.87500  1.0000
  Co  Co51      1.0  0.75000  0.75000  0.75000  1.0000
