data_image0
_chemical_formula_structural       O3BaPbO3BaPbO3BaBiO3BaBiO3BaBiO3BaPbO3BaPbO3BaBiO3BaBiO3BaBiO3BaPbO3BaPbO3BaPbO3BaPbO3BaPbO3BaPbO3BaPbO3BaPbO3BaPbO3BaPbO3BaBiO3BaPbO3BaBiO3BaPbO3BaBiO3BaBiO3BaBiO3BaBiO3BaPbO3BaBiO3BaBiO3BaPbO3BaBiO3BaPbO3BaBiO3BaBiO3BaPbO3BaBiO3BaBiO3BaBiO3BaPbO3BaBiO3BaPbO3BaBiO3BaPbO3BaPbO3BaBiO3BaBiO3BaPbO3BaPbO3BaPbO3BaBiO3BaPbO3BaPbO3BaBiO3BaBiO3BaPbO3BaPbO3BaBiO3BaBiO3BaBiO3BaPbO3BaBiO3BaBi
_chemical_formula_sum              "O192 Ba64 Pb32 Bi32"
_cell_length_a       17.16
_cell_length_b       17.16
_cell_length_c       17.16
_cell_angle_alpha    90
_cell_angle_beta     90
_cell_angle_gamma    90

_space_group_name_H-M_alt    "P 1"
_space_group_IT_number       1

loop_
  _space_group_symop_operation_xyz
  'x, y, z'

loop_
  _atom_site_type_symbol
  _atom_site_label
  _atom_site_symmetry_multiplicity
  _atom_site_fract_x
  _atom_site_fract_y
  _atom_site_fract_z
  _atom_site_occupancy
  O   O1        1.0  0.12500  0.00000  0.00000  1.0000
  O   O2        1.0  0.00000  0.12500  0.00000  1.0000
  O   O3        1.0  0.00000  0.00000  0.12500  1.0000
  Ba  Ba1       1.0  0.12500  0.12500  0.12500  1.0000
  Pb  Pb1       1.0  0.00000  0.00000  0.00000  1.0000
  O   O4        1.0  0.12500  0.00000  0.25000  1.0000
  O   O5        1.0  0.00000  0.12500  0.25000  1.0000
  O   O6        1.0  0.00000  0.00000  0.37500  1.0000
  Ba  Ba2       1.0  0.12500  0.12500  0.37500  1.0000
  Pb  Pb2       1.0  0.00000  0.00000  0.25000  1.0000
  O   O7        1.0  0.12500  0.00000  0.50000  1.0000
  O   O8        1.0  0.00000  0.12500  0.50000  1.0000
  O   O9        1.0  0.00000  0.00000  0.62500  1.0000
  Ba  Ba3       1.0  0.12500  0.12500  0.62500  1.0000
  Bi  Bi1       1.0  0.00000  0.00000  0.50000  1.0000
  O   O10       1.0  0.12500  0.00000  0.75000  1.0000
  O   O11       1.0  0.00000  0.12500  0.75000  1.0000
  O   O12       1.0  0.00000  0.00000  0.87500  1.0000
  Ba  Ba4       1.0  0.12500  0.12500  0.87500  1.0000
  Bi  Bi2       1.0  0.00000  0.00000  0.75000  1.0000
  O   O13       1.0  0.12500  0.25000  0.00000  1.0000
  O   O14       1.0  0.00000  0.37500  0.00000  1.0000
  O   O15       1.0  0.00000  0.25000  0.12500  1.0000
  Ba  Ba5       1.0  0.12500  0.37500  0.12500  1.0000
  Bi  Bi3       1.0  0.00000  0.25000  0.00000  1.0000
  O   O16       1.0  0.12500  0.25000  0.25000  1.0000
  O   O17       1.0  0.00000  0.37500  0.25000  1.0000
  O   O18       1.0  0.00000  0.25000  0.37500  1.0000
  Ba  Ba6       1.0  0.12500  0.37500  0.37500  1.0000
  Pb  Pb3       1.0  0.00000  0.25000  0.25000  1.0000
  O   O19       1.0  0.12500  0.25000  0.50000  1.0000
  O   O20       1.0  0.00000  0.37500  0.50000  1.0000
  O   O21       1.0  0.00000  0.25000  0.62500  1.0000
  Ba  Ba7       1.0  0.12500  0.37500  0.62500  1.0000
  Pb  Pb4       1.0  0.00000  0.25000  0.50000  1.0000
  O   O22       1.0  0.12500  0.25000  0.75000  1.0000
  O   O23       1.0  0.00000  0.37500  0.75000  1.0000
  O   O24       1.0  0.00000  0.25000  0.87500  1.0000
  Ba  Ba8       1.0  0.12500  0.37500  0.87500  1.0000
  Bi  Bi4       1.0  0.00000  0.25000  0.75000  1.0000
  O   O25       1.0  0.12500  0.50000  0.00000  1.0000
  O   O26       1.0  0.00000  0.62500  0.00000  1.0000
  O   O27       1.0  0.00000  0.50000  0.12500  1.0000
  Ba  Ba9       1.0  0.12500  0.62500  0.12500  1.0000
  Bi  Bi5       1.0  0.00000  0.50000  0.00000  1.0000
  O   O28       1.0  0.12500  0.50000  0.25000  1.0000
  O   O29       1.0  0.00000  0.62500  0.25000  1.0000
  O   O30       1.0  0.00000  0.50000  0.37500  1.0000
  Ba  Ba10      1.0  0.12500  0.62500  0.37500  1.0000
  Bi  Bi6       1.0  0.00000  0.50000  0.25000  1.0000
  O   O31       1.0  0.12500  0.50000  0.50000  1.0000
  O   O32       1.0  0.00000  0.62500  0.50000  1.0000
  O   O33       1.0  0.00000  0.50000  0.62500  1.0000
  Ba  Ba11      1.0  0.12500  0.62500  0.62500  1.0000
  Pb  Pb5       1.0  0.00000  0.50000  0.50000  1.0000
  O   O34       1.0  0.12500  0.50000  0.75000  1.0000
  O   O35       1.0  0.00000  0.62500  0.75000  1.0000
  O   O36       1.0  0.00000  0.50000  0.87500  1.0000
  Ba  Ba12      1.0  0.12500  0.62500  0.87500  1.0000
  Pb  Pb6       1.0  0.00000  0.50000  0.75000  1.0000
  O   O37       1.0  0.12500  0.75000  0.00000  1.0000
  O   O38       1.0  0.00000  0.87500  0.00000  1.0000
  O   O39       1.0  0.00000  0.75000  0.12500  1.0000
  Ba  Ba13      1.0  0.12500  0.87500  0.12500  1.0000
  Pb  Pb7       1.0  0.00000  0.75000  0.00000  1.0000
  O   O40       1.0  0.12500  0.75000  0.25000  1.0000
  O   O41       1.0  0.00000  0.87500  0.25000  1.0000
  O   O42       1.0  0.00000  0.75000  0.37500  1.0000
  Ba  Ba14      1.0  0.12500  0.87500  0.37500  1.0000
  Pb  Pb8       1.0  0.00000  0.75000  0.25000  1.0000
  O   O43       1.0  0.12500  0.75000  0.50000  1.0000
  O   O44       1.0  0.00000  0.87500  0.50000  1.0000
  O   O45       1.0  0.00000  0.75000  0.62500  1.0000
  Ba  Ba15      1.0  0.12500  0.87500  0.62500  1.0000
  Pb  Pb9       1.0  0.00000  0.75000  0.50000  1.0000
  O   O46       1.0  0.12500  0.75000  0.75000  1.0000
  O   O47       1.0  0.00000  0.87500  0.75000  1.0000
  O   O48       1.0  0.00000  0.75000  0.87500  1.0000
  Ba  Ba16      1.0  0.12500  0.87500  0.87500  1.0000
  Pb  Pb10      1.0  0.00000  0.75000  0.75000  1.0000
  O   O49       1.0  0.37500  0.00000  0.00000  1.0000
  O   O50       1.0  0.25000  0.12500  0.00000  1.0000
  O   O51       1.0  0.25000  0.00000  0.12500  1.0000
  Ba  Ba17      1.0  0.37500  0.12500  0.12500  1.0000
  Pb  Pb11      1.0  0.25000  0.00000  0.00000  1.0000
  O   O52       1.0  0.37500  0.00000  0.25000  1.0000
  O   O53       1.0  0.25000  0.12500  0.25000  1.0000
  O   O54       1.0  0.25000  0.00000  0.37500  1.0000
  Ba  Ba18      1.0  0.37500  0.12500  0.37500  1.0000
  Pb  Pb12      1.0  0.25000  0.00000  0.25000  1.0000
  O   O55       1.0  0.37500  0.00000  0.50000  1.0000
  O   O56       1.0  0.25000  0.12500  0.50000  1.0000
  O   O57       1.0  0.25000  0.00000  0.62500  1.0000
  Ba  Ba19      1.0  0.37500  0.12500  0.62500  1.0000
  Pb  Pb13      1.0  0.25000  0.00000  0.50000  1.0000
  O   O58       1.0  0.37500  0.00000  0.75000  1.0000
  O   O59       1.0  0.25000  0.12500  0.75000  1.0000
  O   O60       1.0  0.25000  0.00000  0.87500  1.0000
  Ba  Ba20      1.0  0.37500  0.12500  0.87500  1.0000
  Pb  Pb14      1.0  0.25000  0.00000  0.75000  1.0000
  O   O61       1.0  0.37500  0.25000  0.00000  1.0000
  O   O62       1.0  0.25000  0.37500  0.00000  1.0000
  O   O63       1.0  0.25000  0.25000  0.12500  1.0000
  Ba  Ba21      1.0  0.37500  0.37500  0.12500  1.0000
  Bi  Bi7       1.0  0.25000  0.25000  0.00000  1.0000
  O   O64       1.0  0.37500  0.25000  0.25000  1.0000
  O   O65       1.0  0.25000  0.37500  0.25000  1.0000
  O   O66       1.0  0.25000  0.25000  0.37500  1.0000
  Ba  Ba22      1.0  0.37500  0.37500  0.37500  1.0000
  Pb  Pb15      1.0  0.25000  0.25000  0.25000  1.0000
  O   O67       1.0  0.37500  0.25000  0.50000  1.0000
  O   O68       1.0  0.25000  0.37500  0.50000  1.0000
  O   O69       1.0  0.25000  0.25000  0.62500  1.0000
  Ba  Ba23      1.0  0.37500  0.37500  0.62500  1.0000
  Bi  Bi8       1.0  0.25000  0.25000  0.50000  1.0000
  O   O70       1.0  0.37500  0.25000  0.75000  1.0000
  O   O71       1.0  0.25000  0.37500  0.75000  1.0000
  O   O72       1.0  0.25000  0.25000  0.87500  1.0000
  Ba  Ba24      1.0  0.37500  0.37500  0.87500  1.0000
  Pb  Pb16      1.0  0.25000  0.25000  0.75000  1.0000
  O   O73       1.0  0.37500  0.50000  0.00000  1.0000
  O   O74       1.0  0.25000  0.62500  0.00000  1.0000
  O   O75       1.0  0.25000  0.50000  0.12500  1.0000
  Ba  Ba25      1.0  0.37500  0.62500  0.12500  1.0000
  Bi  Bi9       1.0  0.25000  0.50000  0.00000  1.0000
  O   O76       1.0  0.37500  0.50000  0.25000  1.0000
  O   O77       1.0  0.25000  0.62500  0.25000  1.0000
  O   O78       1.0  0.25000  0.50000  0.37500  1.0000
  Ba  Ba26      1.0  0.37500  0.62500  0.37500  1.0000
  Bi  Bi10      1.0  0.25000  0.50000  0.25000  1.0000
  O   O79       1.0  0.37500  0.50000  0.50000  1.0000
  O   O80       1.0  0.25000  0.62500  0.50000  1.0000
  O   O81       1.0  0.25000  0.50000  0.62500  1.0000
  Ba  Ba27      1.0  0.37500  0.62500  0.62500  1.0000
  Bi  Bi11      1.0  0.25000  0.50000  0.50000  1.0000
  O   O82       1.0  0.37500  0.50000  0.75000  1.0000
  O   O83       1.0  0.25000  0.62500  0.75000  1.0000
  O   O84       1.0  0.25000  0.50000  0.87500  1.0000
  Ba  Ba28      1.0  0.37500  0.62500  0.87500  1.0000
  Bi  Bi12      1.0  0.25000  0.50000  0.75000  1.0000
  O   O85       1.0  0.37500  0.75000  0.00000  1.0000
  O   O86       1.0  0.25000  0.87500  0.00000  1.0000
  O   O87       1.0  0.25000  0.75000  0.12500  1.0000
  Ba  Ba29      1.0  0.37500  0.87500  0.12500  1.0000
  Pb  Pb17      1.0  0.25000  0.75000  0.00000  1.0000
  O   O88       1.0  0.37500  0.75000  0.25000  1.0000
  O   O89       1.0  0.25000  0.87500  0.25000  1.0000
  O   O90       1.0  0.25000  0.75000  0.37500  1.0000
  Ba  Ba30      1.0  0.37500  0.87500  0.37500  1.0000
  Bi  Bi13      1.0  0.25000  0.75000  0.25000  1.0000
  O   O91       1.0  0.37500  0.75000  0.50000  1.0000
  O   O92       1.0  0.25000  0.87500  0.50000  1.0000
  O   O93       1.0  0.25000  0.75000  0.62500  1.0000
  Ba  Ba31      1.0  0.37500  0.87500  0.62500  1.0000
  Bi  Bi14      1.0  0.25000  0.75000  0.50000  1.0000
  O   O94       1.0  0.37500  0.75000  0.75000  1.0000
  O   O95       1.0  0.25000  0.87500  0.75000  1.0000
  O   O96       1.0  0.25000  0.75000  0.87500  1.0000
  Ba  Ba32      1.0  0.37500  0.87500  0.87500  1.0000
  Pb  Pb18      1.0  0.25000  0.75000  0.75000  1.0000
  O   O97       1.0  0.62500  0.00000  0.00000  1.0000
  O   O98       1.0  0.50000  0.12500  0.00000  1.0000
  O   O99       1.0  0.50000  0.00000  0.12500  1.0000
  Ba  Ba33      1.0  0.62500  0.12500  0.12500  1.0000
  Bi  Bi15      1.0  0.50000  0.00000  0.00000  1.0000
  O   O100      1.0  0.62500  0.00000  0.25000  1.0000
  O   O101      1.0  0.50000  0.12500  0.25000  1.0000
  O   O102      1.0  0.50000  0.00000  0.37500  1.0000
  Ba  Ba34      1.0  0.62500  0.12500  0.37500  1.0000
  Pb  Pb19      1.0  0.50000  0.00000  0.25000  1.0000
  O   O103      1.0  0.62500  0.00000  0.50000  1.0000
  O   O104      1.0  0.50000  0.12500  0.50000  1.0000
  O   O105      1.0  0.50000  0.00000  0.62500  1.0000
  Ba  Ba35      1.0  0.62500  0.12500  0.62500  1.0000
  Bi  Bi16      1.0  0.50000  0.00000  0.50000  1.0000
  O   O106      1.0  0.62500  0.00000  0.75000  1.0000
  O   O107      1.0  0.50000  0.12500  0.75000  1.0000
  O   O108      1.0  0.50000  0.00000  0.87500  1.0000
  Ba  Ba36      1.0  0.62500  0.12500  0.87500  1.0000
  Bi  Bi17      1.0  0.50000  0.00000  0.75000  1.0000
  O   O109      1.0  0.62500  0.25000  0.00000  1.0000
  O   O110      1.0  0.50000  0.37500  0.00000  1.0000
  O   O111      1.0  0.50000  0.25000  0.12500  1.0000
  Ba  Ba37      1.0  0.62500  0.37500  0.12500  1.0000
  Pb  Pb20      1.0  0.50000  0.25000  0.00000  1.0000
  O   O112      1.0  0.62500  0.25000  0.25000  1.0000
  O   O113      1.0  0.50000  0.37500  0.25000  1.0000
  O   O114      1.0  0.50000  0.25000  0.37500  1.0000
  Ba  Ba38      1.0  0.62500  0.37500  0.37500  1.0000
  Bi  Bi18      1.0  0.50000  0.25000  0.25000  1.0000
  O   O115      1.0  0.62500  0.25000  0.50000  1.0000
  O   O116      1.0  0.50000  0.37500  0.50000  1.0000
  O   O117      1.0  0.50000  0.25000  0.62500  1.0000
  Ba  Ba39      1.0  0.62500  0.37500  0.62500  1.0000
  Bi  Bi19      1.0  0.50000  0.25000  0.50000  1.0000
  O   O118      1.0  0.62500  0.25000  0.75000  1.0000
  O   O119      1.0  0.50000  0.37500  0.75000  1.0000
  O   O120      1.0  0.50000  0.25000  0.87500  1.0000
  Ba  Ba40      1.0  0.62500  0.37500  0.87500  1.0000
  Bi  Bi20      1.0  0.50000  0.25000  0.75000  1.0000
  O   O121      1.0  0.62500  0.50000  0.00000  1.0000
  O   O122      1.0  0.50000  0.62500  0.00000  1.0000
  O   O123      1.0  0.50000  0.50000  0.12500  1.0000
  Ba  Ba41      1.0  0.62500  0.62500  0.12500  1.0000
  Pb  Pb21      1.0  0.50000  0.50000  0.00000  1.0000
  O   O124      1.0  0.62500  0.50000  0.25000  1.0000
  O   O125      1.0  0.50000  0.62500  0.25000  1.0000
  O   O126      1.0  0.50000  0.50000  0.37500  1.0000
  Ba  Ba42      1.0  0.62500  0.62500  0.37500  1.0000
  Bi  Bi21      1.0  0.50000  0.50000  0.25000  1.0000
  O   O127      1.0  0.62500  0.50000  0.50000  1.0000
  O   O128      1.0  0.50000  0.62500  0.50000  1.0000
  O   O129      1.0  0.50000  0.50000  0.62500  1.0000
  Ba  Ba43      1.0  0.62500  0.62500  0.62500  1.0000
  Pb  Pb22      1.0  0.50000  0.50000  0.50000  1.0000
  O   O130      1.0  0.62500  0.50000  0.75000  1.0000
  O   O131      1.0  0.50000  0.62500  0.75000  1.0000
  O   O132      1.0  0.50000  0.50000  0.87500  1.0000
  Ba  Ba44      1.0  0.62500  0.62500  0.87500  1.0000
  Bi  Bi22      1.0  0.50000  0.50000  0.75000  1.0000
  O   O133      1.0  0.62500  0.75000  0.00000  1.0000
  O   O134      1.0  0.50000  0.87500  0.00000  1.0000
  O   O135      1.0  0.50000  0.75000  0.12500  1.0000
  Ba  Ba45      1.0  0.62500  0.87500  0.12500  1.0000
  Pb  Pb23      1.0  0.50000  0.75000  0.00000  1.0000
  O   O136      1.0  0.62500  0.75000  0.25000  1.0000
  O   O137      1.0  0.50000  0.87500  0.25000  1.0000
  O   O138      1.0  0.50000  0.75000  0.37500  1.0000
  Ba  Ba46      1.0  0.62500  0.87500  0.37500  1.0000
  Pb  Pb24      1.0  0.50000  0.75000  0.25000  1.0000
  O   O139      1.0  0.62500  0.75000  0.50000  1.0000
  O   O140      1.0  0.50000  0.87500  0.50000  1.0000
  O   O141      1.0  0.50000  0.75000  0.62500  1.0000
  Ba  Ba47      1.0  0.62500  0.87500  0.62500  1.0000
  Bi  Bi23      1.0  0.50000  0.75000  0.50000  1.0000
  O   O142      1.0  0.62500  0.75000  0.75000  1.0000
  O   O143      1.0  0.50000  0.87500  0.75000  1.0000
  O   O144      1.0  0.50000  0.75000  0.87500  1.0000
  Ba  Ba48      1.0  0.62500  0.87500  0.87500  1.0000
  Bi  Bi24      1.0  0.50000  0.75000  0.75000  1.0000
  O   O145      1.0  0.87500  0.00000  0.00000  1.0000
  O   O146      1.0  0.75000  0.12500  0.00000  1.0000
  O   O147      1.0  0.75000  0.00000  0.12500  1.0000
  Ba  Ba49      1.0  0.87500  0.12500  0.12500  1.0000
  Pb  Pb25      1.0  0.75000  0.00000  0.00000  1.0000
  O   O148      1.0  0.87500  0.00000  0.25000  1.0000
  O   O149      1.0  0.75000  0.12500  0.25000  1.0000
  O   O150      1.0  0.75000  0.00000  0.37500  1.0000
  Ba  Ba50      1.0  0.87500  0.12500  0.37500  1.0000
  Pb  Pb26      1.0  0.75000  0.00000  0.25000  1.0000
  O   O151      1.0  0.87500  0.00000  0.50000  1.0000
  O   O152      1.0  0.75000  0.12500  0.50000  1.0000
  O   O153      1.0  0.75000  0.00000  0.62500  1.0000
  Ba  Ba51      1.0  0.87500  0.12500  0.62500  1.0000
  Pb  Pb27      1.0  0.75000  0.00000  0.50000  1.0000
  O   O154      1.0  0.87500  0.00000  0.75000  1.0000
  O   O155      1.0  0.75000  0.12500  0.75000  1.0000
  O   O156      1.0  0.75000  0.00000  0.87500  1.0000
  Ba  Ba52      1.0  0.87500  0.12500  0.87500  1.0000
  Bi  Bi25      1.0  0.75000  0.00000  0.75000  1.0000
  O   O157      1.0  0.87500  0.25000  0.00000  1.0000
  O   O158      1.0  0.75000  0.37500  0.00000  1.0000
  O   O159      1.0  0.75000  0.25000  0.12500  1.0000
  Ba  Ba53      1.0  0.87500  0.37500  0.12500  1.0000
  Pb  Pb28      1.0  0.75000  0.25000  0.00000  1.0000
  O   O160      1.0  0.87500  0.25000  0.25000  1.0000
  O   O161      1.0  0.75000  0.37500  0.25000  1.0000
  O   O162      1.0  0.75000  0.25000  0.37500  1.0000
  Ba  Ba54      1.0  0.87500  0.37500  0.37500  1.0000
  Pb  Pb29      1.0  0.75000  0.25000  0.25000  1.0000
  O   O163      1.0  0.87500  0.25000  0.50000  1.0000
  O   O164      1.0  0.75000  0.37500  0.50000  1.0000
  O   O165      1.0  0.75000  0.25000  0.62500  1.0000
  Ba  Ba55      1.0  0.87500  0.37500  0.62500  1.0000
  Bi  Bi26      1.0  0.75000  0.25000  0.50000  1.0000
  O   O166      1.0  0.87500  0.25000  0.75000  1.0000
  O   O167      1.0  0.75000  0.37500  0.75000  1.0000
  O   O168      1.0  0.75000  0.25000  0.87500  1.0000
  Ba  Ba56      1.0  0.87500  0.37500  0.87500  1.0000
  Bi  Bi27      1.0  0.75000  0.25000  0.75000  1.0000
  O   O169      1.0  0.87500  0.50000  0.00000  1.0000
  O   O170      1.0  0.75000  0.62500  0.00000  1.0000
  O   O171      1.0  0.75000  0.50000  0.12500  1.0000
  Ba  Ba57      1.0  0.87500  0.62500  0.12500  1.0000
  Pb  Pb30      1.0  0.75000  0.50000  0.00000  1.0000
  O   O172      1.0  0.87500  0.50000  0.25000  1.0000
  O   O173      1.0  0.75000  0.62500  0.25000  1.0000
  O   O174      1.0  0.75000  0.50000  0.37500  1.0000
  Ba  Ba58      1.0  0.87500  0.62500  0.37500  1.0000
  Pb  Pb31      1.0  0.75000  0.50000  0.25000  1.0000
  O   O175      1.0  0.87500  0.50000  0.50000  1.0000
  O   O176      1.0  0.75000  0.62500  0.50000  1.0000
  O   O177      1.0  0.75000  0.50000  0.62500  1.0000
  Ba  Ba59      1.0  0.87500  0.62500  0.62500  1.0000
  Bi  Bi28      1.0  0.75000  0.50000  0.50000  1.0000
  O   O178      1.0  0.87500  0.50000  0.75000  1.0000
  O   O179      1.0  0.75000  0.62500  0.75000  1.0000
  O   O180      1.0  0.75000  0.50000  0.87500  1.0000
  Ba  Ba60      1.0  0.87500  0.62500  0.87500  1.0000
  Bi  Bi29      1.0  0.75000  0.50000  0.75000  1.0000
  O   O181      1.0  0.87500  0.75000  0.00000  1.0000
  O   O182      1.0  0.75000  0.87500  0.00000  1.0000
  O   O183      1.0  0.75000  0.75000  0.12500  1.0000
  Ba  Ba61      1.0  0.87500  0.87500  0.12500  1.0000
  Bi  Bi30      1.0  0.75000  0.75000  0.00000  1.0000
  O   O184      1.0  0.87500  0.75000  0.25000  1.0000
  O   O185      1.0  0.75000  0.87500  0.25000  1.0000
  O   O186      1.0  0.75000  0.75000  0.37500  1.0000
  Ba  Ba62      1.0  0.87500  0.87500  0.37500  1.0000
  Pb  Pb32      1.0  0.75000  0.75000  0.25000  1.0000
  O   O187      1.0  0.87500  0.75000  0.50000  1.0000
  O   O188      1.0  0.75000  0.87500  0.50000  1.0000
  O   O189      1.0  0.75000  0.75000  0.62500  1.0000
  Ba  Ba63      1.0  0.87500  0.87500  0.62500  1.0000
  Bi  Bi31      1.0  0.75000  0.75000  0.50000  1.0000
  O   O190      1.0  0.87500  0.75000  0.75000  1.0000
  O   O191      1.0  0.75000  0.87500  0.75000  1.0000
  O   O192      1.0  0.75000  0.75000  0.87500  1.0000
  Ba  Ba64      1.0  0.87500  0.87500  0.87500  1.0000
  Bi  Bi32      1.0  0.75000  0.75000  0.75000  1.0000
